
Circuit: * simplest rlc example circuit

Doing analysis at TEMP = 27.000000 and TNOM = 27.000000


No. of Data Rows : 1
	Node                                  Voltage
	----                                  -------
	----	-------
	V(1)                             0.000000e+00

	Source	Current
	------	-------

	l1#branch                        -1.00000e+00

 Capacitor models (Fixed capacitor)
      model                     C

        cap                     0
         cj                     0
       cjsw                     0
       defw                 1e-05
       defl                     0
     narrow                     0
      short                     0
        tc1                     0
        tc2                     0
         di                     0
      thick                     0

 Inductor models (Fixed inductor)
      model                     L

        ind                     0
        tc1                     0
        tc2                     0
      csect                     0
     length                     0
         nt                     0
         mu                     0

 Resistor models (Simple linear resistor)
      model                     R

        rsh                     0
     narrow                     0
      short                     0
        tc1                     0
        tc2                     0
       defw                 1e-05
         kf                     0
         af                     0

 Capacitor: Fixed capacitor
     device                    c1
      model                     C
capacitance                     1
        cap                     1
          c                     1
      dtemp                     0
          i                     0
          p                     0

 Inductor: Fixed inductor
     device                    l1
      model                     L
 inductance                     1
      dtemp                     0
         nt                     0
       flux                     0
          v                     0
          i                    -1
          p                    -0

 Isource: Independent current source
     device                    i1
         dc                     1
      acmag                     0
      pulse         -
       sine         -
        sin         -
        exp         -
        pwl         -
       sffm         -
         am         -
    trnoise         -
   trrandom         -
          v                     0
          p                    -0
    current                     1

 Resistor: Simple linear resistor
     device                    r1
      model                     R
 resistance                     1
         ac                     1
      dtemp                     0
      noisy                     1
          i                     0
          p                     0

elapsed time since last call: 0.018 seconds.

Total elapsed time: 0.018 seconds.

Total DRAM available = 7816.363281 MB.
DRAM currently available = 5598.632812 MB.
Total ngspice program size = 5.488281 MB.
Resident set size = 719.000 kB.
Shared ngspice pages = 538.000 kB.
Text (code) pages = 1.095703 MB.
Stack = 0 bytes.
Library pages = 3.060547 MB.

